
// Mesh generated on 08-Mar-2021
// Local directory: /Users/fbisetti/teaching/ASE347/SP-2021/OF-assignments/of2/simulations/mesh
// Username: fbisetti


// Lf (fore)  =  4.00000e+00
// Lw (wake)  =  6.00000e+00
// R  (outer) =  1.00000e+00
// H  (top/bottom) = 4.00000

FoamFile
{
    version  2.0;
    format   ascii;
    class    dictionary;
    object   blockMeshDict;
}

convertToMeters 1.0;

vertices
(
(0.5 0 -0.05) //0
(0.3535533905932738 0.3535533905932737 -0.05) //1
(3.061616997868383e-17 0.5 -0.05) //2
(-0.3535533905932737 0.3535533905932738 -0.05) //3
(-0.5 6.123233995736766e-17 -0.05) //4
(-0.3535533905932738 -0.3535533905932737 -0.05) //5
(-9.184850993605148e-17 -0.5 -0.05) //6
(0.3535533905932737 -0.3535533905932738 -0.05) //7
(1.5 -3.673940397442059e-16 -0.05) //8
(1.060660171779821 1.060660171779821 -0.05) //9
(4.592425496802575e-16 1.5 -0.05) //10
(-1.06066017177982 1.060660171779823 -0.05) //11
(-1.5 5.51091059616309e-16 -0.05) //12
(-1.060660171779821 -1.060660171779822 -0.05) //13
(-6.429395695523604e-16 -1.5 -0.05) //14
(1.06066017177982 -1.060660171779823 -0.05) //15
(7 -3.673940397442059e-16 -0.05) //16
(7 1.060660171779821 -0.05) //17
(7 2.5 -0.05) //18
(1.060660171779821 2.5 -0.05) //19
(4.592425496802575e-16 2.5 -0.05) //20
(-1.06066017177982 2.5 -0.05) //21
(-4 2.5 -0.05) //22
(-4 1.060660171779823 -0.05) //23
(-4 5.51091059616309e-16 -0.05) //24
(-4 -1.060660171779822 -0.05) //25
(-4 -2.5 -0.05) //26
(-1.060660171779821 -2.5 -0.05) //27
(-6.429395695523604e-16 -2.5 -0.05) //28
(1.06066017177982 -2.5 -0.05) //29
(7 -2.5 -0.05) //30
(7 -1.060660171779823 -0.05) //31
(0.5 0 0.05) //32
(0.3535533905932738 0.3535533905932737 0.05) //33
(3.061616997868383e-17 0.5 0.05) //34
(-0.3535533905932737 0.3535533905932738 0.05) //35
(-0.5 6.123233995736766e-17 0.05) //36
(-0.3535533905932738 -0.3535533905932737 0.05) //37
(-9.184850993605148e-17 -0.5 0.05) //38
(0.3535533905932737 -0.3535533905932738 0.05) //39
(1.5 -3.673940397442059e-16 0.05) //40
(1.060660171779821 1.060660171779821 0.05) //41
(4.592425496802575e-16 1.5 0.05) //42
(-1.06066017177982 1.060660171779823 0.05) //43
(-1.5 5.51091059616309e-16 0.05) //44
(-1.060660171779821 -1.060660171779822 0.05) //45
(-6.429395695523604e-16 -1.5 0.05) //46
(1.06066017177982 -1.060660171779823 0.05) //47
(7 -3.673940397442059e-16 0.05) //48
(7 1.060660171779821 0.05) //49
(7 2.5 0.05) //50
(1.060660171779821 2.5 0.05) //51
(4.592425496802575e-16 2.5 0.05) //52
(-1.06066017177982 2.5 0.05) //53
(-4 2.5 0.05) //54
(-4 1.060660171779823 0.05) //55
(-4 5.51091059616309e-16 0.05) //56
(-4 -1.060660171779822 0.05) //57
(-4 -2.5 0.05) //58
(-1.060660171779821 -2.5 0.05) //59
(-6.429395695523604e-16 -2.5 0.05) //60
(1.06066017177982 -2.5 0.05) //61
(7 -2.5 0.05) //62
(7 -1.060660171779823 0.05) //63

);

blocks
(
hex (0 8 9 1 32 40 41 33) (10 20 1) simpleGrading (2 1 1) // block number 0
hex (1 9 10 2 33 41 42 34) (10 20 1) simpleGrading (2 1 1) // block number 1
hex (2 10 11 3 34 42 43 35) (10 20 1) simpleGrading (2 1 1) // block number 2
hex (3 11 12 4 35 43 44 36) (10 20 1) simpleGrading (2 1 1) // block number 3
hex (4 12 13 5 36 44 45 37) (10 20 1) simpleGrading (2 1 1) // block number 4
hex (5 13 14 6 37 45 46 38) (10 20 1) simpleGrading (2 1 1) // block number 5
hex (6 14 15 7 38 46 47 39) (10 20 1) simpleGrading (2 1 1) // block number 6
hex (7 15 8 0 39 47 40 32) (10 20 1) simpleGrading (2 1 1) // block number 7
hex (8 16 17 9 40 48 49 41) (40 20 1) simpleGrading (1 1 1) // block number 8
hex (9 17 18 19 41 49 50 51) (40 40 1) simpleGrading (1 1 1) // block number 9
hex (10 9 19 20 42 41 51 52) (20 40 1) simpleGrading (1 1 1) // block number 10
hex (11 10 20 21 43 42 52 53) (20 40 1) simpleGrading (1 1 1) // block number 11
hex (23 11 21 22 55 43 53 54) (40 40 1) simpleGrading (1 1 1) // block number 12
hex (24 12 11 23 56 44 43 55) (40 20 1) simpleGrading (1 1 1) // block number 13
hex (25 13 12 24 57 45 44 56) (40 20 1) simpleGrading (1 1 1) // block number 14
hex (26 27 13 25 58 59 45 57) (40 40 1) simpleGrading (1 1 1) // block number 15
hex (27 28 14 13 59 60 46 45) (20 40 1) simpleGrading (1 1 1) // block number 16
hex (28 29 15 14 60 61 47 46) (20 40 1) simpleGrading (1 1 1) // block number 17
hex (29 30 31 15 61 62 63 47) (40 40 1) simpleGrading (1 1 1) // block number 18
hex (15 31 16 8 47 63 48 40) (10 20 1) simpleGrading (1 1 1) // block number 19

);

edges
(

arc 0 1 (0.4619397662556434 0.1913417161825449 -0.05)
arc 32 33 (0.4619397662556434 0.1913417161825449 0.05)
arc 1 2 (0.1913417161825449 0.4619397662556434 -0.05)
arc 33 34 (0.1913417161825449 0.4619397662556434 0.05)
arc 2 3 (-0.1913417161825449 0.4619397662556434 -0.05)
arc 34 35 (-0.1913417161825449 0.4619397662556434 0.05)
arc 3 4 (-0.4619397662556434 0.1913417161825449 -0.05)
arc 35 36 (-0.4619397662556434 0.1913417161825449 0.05)
arc 4 5 (-0.4619397662556434 -0.1913417161825448 -0.05)
arc 36 37 (-0.4619397662556434 -0.1913417161825448 0.05)
arc 5 6 (-0.1913417161825452 -0.4619397662556433 -0.05)
arc 37 38 (-0.1913417161825452 -0.4619397662556433 0.05)
arc 6 7 (0.191341716182545 -0.4619397662556433 -0.05)
arc 38 39 (0.191341716182545 -0.4619397662556433 0.05)
arc 7 0 (0.4619397662556433 -0.1913417161825452 -0.05)
arc 39 32 (0.4619397662556433 -0.1913417161825452 0.05)
arc 8 9 (1.38581929876693 0.5740251485476346 -0.05)
arc 40 41 (1.38581929876693 0.5740251485476346 0.05)
arc 9 10 (0.5740251485476348 1.38581929876693 -0.05)
arc 41 42 (0.5740251485476348 1.38581929876693 0.05)
arc 10 11 (-0.5740251485476346 1.38581929876693 -0.05)
arc 42 43 (-0.5740251485476346 1.38581929876693 0.05)
arc 11 12 (-1.38581929876693 0.5740251485476349 -0.05)
arc 43 44 (-1.38581929876693 0.5740251485476349 0.05)
arc 12 13 (-1.38581929876693 -0.5740251485476345 -0.05)
arc 44 45 (-1.38581929876693 -0.5740251485476345 0.05)
arc 13 14 (-0.5740251485476355 -1.38581929876693 -0.05)
arc 45 46 (-0.5740251485476355 -1.38581929876693 0.05)
arc 14 15 (0.574025148547635 -1.38581929876693 -0.05)
arc 46 47 (0.574025148547635 -1.38581929876693 0.05)
arc 15 8 (1.38581929876693 -0.5740251485476355 -0.05)
arc 47 40 (1.38581929876693 -0.5740251485476355 0.05)

);

boundary
(

  inlet
  {
      type patch;
      faces
      (
         (22 54 55 23)
         (23 55 56 24)
         (24 56 57 25)
         (25 57 58 26)
      );
  }

  outlet
  {
      type patch;
      faces
      (
         (18 50 49 17)
         (17 49 48 16)
         (16 48 63 31)
         (31 63 62 30)
      );
  }

  cylinder
  {
      type wall;
      faces
      (
         (0 32 33 1)
         (1 33 34 2)
         (2 34 35 3)
         (3 35 36 4)
         (4 36 37 5)
         (5 37 38 6)
         (6 38 39 7)
         (7 39 32 0)
      );
  }

  top
  {
      type symmetryPlane;
      faces
      (
         (22 54 53 21)
         (21 53 52 20)
         (20 52 51 19)
         (19 51 50 18)
      );
  }

  bottom
  {
      type symmetryPlane;
      faces
      (
         (26 58 59 27)
         (27 59 60 28)
         (28 60 61 29)
         (29 61 62 30)
      );
  }

);
